# MODFLOW-NWT data for Prob 2 from McDonald and others (1991)
1.0E-4 1. 500 1.0e-5  2  1 1 SPECIFIED 0.9 0.00001 0.000  0.10 0  20 2.0 0.6  linmeth=1 (GMRES); =2 (xmd)  
2 0 3 7 0 0.0 0 1.0E-4 1.0e-4  50       XMD